*Heading
** Job name: BoundaryCond Model name: BoundaryConditions
** Generated by: Abaqus/CAE 2020
*Preprint, echo=NO, model=NO, history=NO, contact=NO
**
** PARTS
**
*Part, name=Plate
*Node
      1,           0.,           0.,           0.
      2,          10.,           0.,           0.
      3,          20.,           0.,           0.
      4,          30.,           0.,           0.
      5,          40.,           0.,           0.
      6,          50.,           0.,           0.
      7,          60.,           0.,           0.
      8,          70.,           0.,           0.
      9,          80.,           0.,           0.
     10,          90.,           0.,           0.
     11,         100.,           0.,           0.
     12,           0.,          10.,           0.
     13,          10.,          10.,           0.
     14,          20.,          10.,           0.
     15,          30.,          10.,           0.
     16,          40.,          10.,           0.
     17,          50.,          10.,           0.
     18,          60.,          10.,           0.
     19,          70.,          10.,           0.
     20,          80.,          10.,           0.
** ... 123 like lines cut
*Element, type=R3D4
  1,   1,   2,  13,  12
  2,   2,   3,  14,  13
  3,   3,   4,  15,  14
  4,   4,   5,  16,  15
  5,   5,   6,  17,  16
  6,   6,   7,  18,  17
  7,   7,   8,  19,  18
  8,   8,   9,  20,  19
  9,   9,  10,  21,  20
 10,  10,  11,  22,  21
 11,  12,  13,  24,  23
 12,  13,  14,  25,  24
 13,  14,  15,  26,  25
 14,  15,  16,  27,  26
 15,  16,  17,  28,  27
 16,  17,  18,  29,  28
 17,  18,  19,  30,  29
 18,  19,  20,  31,  30
 19,  20,  21,  32,  31
 20,  21,  22,  33,  32
** ... 100 like lines cut
*Node
    144,          50.,          60.,           0.
*Nset, nset=Plate-RefPt_, internal
144, 
*Nset, nset=_PickedSet6, internal
 144,
*Element, type=MASS, elset=_PickedSet6_Mass_
121, 144
*Mass, elset=_PickedSet6_Mass_
0.5, 
*End Part
**  
**
** ASSEMBLY
**
*Assembly, name=Assembly
**  
*Instance, name=Plate-1, part=Plate
        -10.,         -10.,         400.
*End Instance
**  
*Instance, name=Plate-2, part=Plate
        -10.,         -10.,           0.
*End Instance
**  
*Nset, nset=_PickedSet8, internal, instance=Plate-2
 144,
*Nset, nset=_PickedSet9, internal, instance=Plate-2
 144,
*Nset, nset=_PickedSet10, internal, instance=Plate-2, generate
   1,  143,    1
*Elset, elset=_PickedSet10, internal, instance=Plate-2, generate
   1,  120,    1
*Nset, nset=_PickedSet11, internal, instance=Plate-1
 144,
*Nset, nset=_PickedSet12, internal, instance=Plate-1, generate
   1,  143,    1
*Elset, elset=_PickedSet12, internal, instance=Plate-1, generate
   1,  120,    1
*Nset, nset=_PickedSet13, internal, instance=Plate-1
 144,
*Nset, nset=_PickedSet14, internal, instance=Plate-1
 144,
** Constraint: Constraint-1
*Rigid Body, ref node=_PickedSet9, elset=_PickedSet10
** Constraint: Constraint-2
*Rigid Body, ref node=_PickedSet11, elset=_PickedSet12
*End Assembly
** 
** MATERIALS
** 
*Material, name=MAT
*Density
 2.7e-09,
*Elastic
70000., 0.33
*Plastic
  180.,   0.
  190., 0.01
  197., 0.02
 211.5, 0.05
 225.8,  0.1
 233.6, 0.15
 238.5,  0.2
 248.5,  0.4
** 
** INTERACTION PROPERTIES
** 
*Surface Interaction, name=INTPROP-1
*Friction
 0.5,
*Surface Behavior, pressure-overclosure=HARD
** 
** BOUNDARY CONDITIONS
** 
** Name: BC-1 Type: Symmetry/Antisymmetry/Encastre
*Boundary
_PickedSet8, ENCASTRE
** Name: BC-2 Type: Displacement/Rotation
*Boundary
_PickedSet13, 1, 1
_PickedSet13, 2, 2
_PickedSet13, 4, 4
_PickedSet13, 5, 5
_PickedSet13, 6, 6
** 
** PREDEFINED FIELDS
** 
** Name: InitialVelocity   Type: Velocity
*Initial Conditions, type=VELOCITY
_PickedSet14, 3, -5000.
** 
** INTERACTIONS
** 
** Interaction: Int-1
*Contact, op=NEW
*Contact Inclusions, ALL EXTERIOR
*Contact Property Assignment
 ,  , INTPROP-1
** ----------------------------------------------------------------
** 
** STEP: Step-1
** 
*Step, name=Step-1, nlgeom=YES
*Dynamic, Explicit
, 0.01
*Bulk Viscosity
0.06, 1.2
** Mass Scaling: Semi-Automatic
**               Whole Model
*Fixed Mass Scaling, dt=2e-07, type=below min
** 
** OUTPUT REQUESTS
** 
*Restart, write, number interval=1, time marks=NO
** 
** FIELD OUTPUT: F-Output-1
** 
*Output, field
*Node Output
U, 
*Element Output, directions=YES
DMICRT, ELEN, PEEQ, S, SDEG, STATUS, STH
** 
** HISTORY OUTPUT: H-Output-1
** 
*Output, history, variable=PRESELECT
*End Step
