*Heading
** Job name: BoundaryCond Model name: BoundaryConditions
** Generated by: Abaqus/CAE 2020
*Preprint, echo=NO, model=NO, history=NO, contact=NO
**
** PARTS
**
*Part, name=Plate
*Node
      1,   6.07000017,   6.07000017,           0.
      2,   98.9300003,   6.07000017,           0.
      3,   98.9300003,   98.9300003,           0.
      4,   6.07000017,   98.9300003,           0.
      5,           0.,           0.,           0.
      6,         105.,           0.,           0.
      7,         105.,         105.,           0.
      8,           0.,         105.,           0.
      9,   8.08869553,   6.07000017,           0.
     10,   10.1073914,   6.07000017,           0.
     11,   12.1260872,   6.07000017,           0.
     12,    14.144783,   6.07000017,           0.
     13,   16.1634789,   6.07000017,           0.
     14,   18.1821747,   6.07000017,           0.
     15,   20.2008705,   6.07000017,           0.
     16,   22.2195644,   6.07000017,           0.
     17,   24.2382603,   6.07000017,           0.
     18,   26.2569561,   6.07000017,           0.
     19,   28.2756519,   6.07000017,           0.
     20,   30.2943478,   6.07000017,           0.
** ... 2851 like lines cut
*Element, type=S4R
   1,    1,    9,  397,  188
   2,    9,   10,  398,  397
   3,   10,   11,  399,  398
   4,   11,   12,  400,  399
   5,   12,   13,  401,  400
   6,   13,   14,  402,  401
   7,   14,   15,  403,  402
   8,   15,   16,  404,  403
   9,   16,   17,  405,  404
  10,   17,   18,  406,  405
  11,   18,   19,  407,  406
  12,   19,   20,  408,  407
  13,   20,   21,  409,  408
  14,   21,   22,  410,  409
  15,   22,   23,  411,  410
  16,   23,   24,  412,  411
  17,   24,   25,  413,  412
  18,   25,   26,  414,  413
  19,   26,   27,  415,  414
  20,   27,   28,  416,  415
** ... 2738 like lines cut
*Element, type=S3
2117, 2580, 2445, 2556
2118, 2606, 2479, 2565
2119, 2616, 2472, 2569
2120, 2794, 2694, 2655
2121, 2795, 2708, 2644
2122, 2585, 2553, 2443
2123, 2621, 2566, 2498
2124, 2431, 2858, 2747
2125, 2712, 2458, 2571
2126, 2806, 2496, 2749
2127, 2807, 2460, 2745
2128, 2484, 2856, 2751
*Nset, nset=_PickedSet20, internal, generate
    1,  2871,     1
*Elset, elset=_PickedSet20, internal, generate
    1,  2770,     1
*Elset, elset=_NEG_SNEG, internal, generate
    1,  2770,     1
*Surface, type=ELEMENT, name=NEG
_NEG_SNEG, SNEG
*Elset, elset=_POS_SPOS, internal, generate
    1,  2770,     1
*Surface, type=ELEMENT, name=POS
_POS_SPOS, SPOS
** Section: FaceSheet
*Shell Section, elset=_PickedSet20, material=MAT
2.5, 5
*End Part
**  
**
** ASSEMBLY
**
*Assembly, name=Assembly
**  
*Instance, name=Plate-1, part=Plate
        -2.5,         -2.5,         9.75
*End Instance
**  
*Instance, name=Plate-2, part=Plate
        -2.5,         -2.5,        -1.25
*End Instance
**  
*Node
      1,          65.,          65.,          30.
*Nset, nset=_PickedSet23, internal
 1,
*Nset, nset=_PickedSet35, internal, instance=Plate-1
    1,    2,    3,    4,    5,    6,    7,    8,    9,   10,   11,   12,   13,   14,   15,   16
   17,   18,   19,   20,   21,   22,   23,   24,   25,   26,   27,   28,   29,   30,   31,   32
   33,   34,   35,   36,   37,   38,   39,   40,   41,   42,   43,   44,   45,   46,   47,   48
   49,   50,   51,   52,   53,   54,   55,   56,   57,   58,   59,   60,   61,   62,   63,   64
   65,   66,   67,   68,   69,   70,   71,   72,   73,   74,   75,   76,   77,   78,   79,   80
   81,   82,   83,   84,   85,   86,   87,   88,   89,   90,   91,   92,   93,   94,   95,   96
   97,   98,   99,  100,  101,  102,  103,  104,  105,  106,  107,  108,  109,  110,  111,  112
  113,  114,  115,  116,  117,  118,  119,  120,  121,  122,  123,  124,  125,  126,  127,  128
  129,  130,  131,  132,  133,  134,  135,  136,  137,  138,  139,  140,  141,  142,  143,  144
  145,  146,  147,  148,  149,  150,  151,  152,  153,  154,  155,  156,  157,  158,  159,  160
  161,  162,  163,  164,  165,  166,  167,  168,  169,  170,  171,  172,  173,  174,  175,  176
  177,  178,  179,  180,  181,  182,  183,  184,  185,  186,  187,  188,  189,  190,  191,  192
  193,  194,  195,  196,  197,  198,  199,  200,  201,  202,  203,  204,  205,  206,  207,  208
  209,  210,  211,  212,  213,  214,  215,  216,  217,  218,  219,  220,  221,  222,  223,  224
  225,  226,  227,  228,  229,  230,  231,  232,  233,  234,  235,  236,  237,  238,  239,  240
  241,  242,  243,  244,  245,  246,  247,  248,  249,  250,  251,  252,  253,  254,  255,  256
  257,  258,  259,  260,  261,  262,  263,  264,  265,  266,  267,  268,  269,  270,  271,  272
  273,  274,  275,  276,  277,  278,  279,  280,  281,  282,  283,  284,  285,  286,  287,  288
  289,  290,  291,  292,  293,  294,  295,  296,  297,  298,  299,  300,  301,  302,  303,  304
  305,  306,  307,  308,  309,  310,  311,  312,  313,  314,  315,  316,  317,  318,  319,  320
** ... 33 like lines cut
*Nset, nset=_PickedSet35, internal, instance=Plate-2
    1,    2,    3,    4,    5,    6,    7,    8,    9,   10,   11,   12,   13,   14,   15,   16
   17,   18,   19,   20,   21,   22,   23,   24,   25,   26,   27,   28,   29,   30,   31,   32
   33,   34,   35,   36,   37,   38,   39,   40,   41,   42,   43,   44,   45,   46,   47,   48
   49,   50,   51,   52,   53,   54,   55,   56,   57,   58,   59,   60,   61,   62,   63,   64
   65,   66,   67,   68,   69,   70,   71,   72,   73,   74,   75,   76,   77,   78,   79,   80
   81,   82,   83,   84,   85,   86,   87,   88,   89,   90,   91,   92,   93,   94,   95,   96
   97,   98,   99,  100,  101,  102,  103,  104,  105,  106,  107,  108,  109,  110,  111,  112
  113,  114,  115,  116,  117,  118,  119,  120,  121,  122,  123,  124,  125,  126,  127,  128
  129,  130,  131,  132,  133,  134,  135,  136,  137,  138,  139,  140,  141,  142,  143,  144
  145,  146,  147,  148,  149,  150,  151,  152,  153,  154,  155,  156,  157,  158,  159,  160
  161,  162,  163,  164,  165,  166,  167,  168,  169,  170,  171,  172,  173,  174,  175,  176
  177,  178,  179,  180,  181,  182,  183,  184,  185,  186,  187,  188,  189,  190,  191,  192
  193,  194,  195,  196,  197,  198,  199,  200,  201,  202,  203,  204,  205,  206,  207,  208
  209,  210,  211,  212,  213,  214,  215,  216,  217,  218,  219,  220,  221,  222,  223,  224
  225,  226,  227,  228,  229,  230,  231,  232,  233,  234,  235,  236,  237,  238,  239,  240
  241,  242,  243,  244,  245,  246,  247,  248,  249,  250,  251,  252,  253,  254,  255,  256
  257,  258,  259,  260,  261,  262,  263,  264,  265,  266,  267,  268,  269,  270,  271,  272
  273,  274,  275,  276,  277,  278,  279,  280,  281,  282,  283,  284,  285,  286,  287,  288
  289,  290,  291,  292,  293,  294,  295,  296,  297,  298,  299,  300,  301,  302,  303,  304
  305,  306,  307,  308,  309,  310,  311,  312,  313,  314,  315,  316,  317,  318,  319,  320
** ... 33 like lines cut
*Elset, elset=_PickedSet35, internal, instance=Plate-1, generate
 2117,  2770,     1
*Elset, elset=_PickedSet35, internal, instance=Plate-2, generate
 2117,  2770,     1
*Nset, nset=_PickedSet36, internal, instance=Plate-2
    1,    2,    3,    4,    9,   10,   11,   12,   13,   14,   15,   16,   17,   18,   19,   20
   21,   22,   23,   24,   25,   26,   27,   28,   29,   30,   31,   32,   33,   34,   35,   36
   37,   38,   39,   40,   41,   42,   43,   44,   45,   46,   47,   48,   49,   50,   51,   52
   53,   54,   55,   56,   57,   58,   59,   60,   61,   62,   63,   64,   65,   66,   67,   68
   69,   70,   71,   72,   73,   74,   75,   76,   77,   78,   79,   80,   81,   82,   83,   84
   85,   86,   87,   88,   89,   90,   91,   92,   93,   94,   95,   96,   97,   98,   99,  100
  101,  102,  103,  104,  105,  106,  107,  108,  109,  110,  111,  112,  113,  114,  115,  116
  117,  118,  119,  120,  121,  122,  123,  124,  125,  126,  127,  128,  129,  130,  131,  132
  133,  134,  135,  136,  137,  138,  139,  140,  141,  142,  143,  144,  145,  146,  147,  148
  149,  150,  151,  152,  153,  154,  155,  156,  157,  158,  159,  160,  161,  162,  163,  164
  165,  166,  167,  168,  169,  170,  171,  172,  173,  174,  175,  176,  177,  178,  179,  180
  181,  182,  183,  184,  185,  186,  187,  188,  397,  398,  399,  400,  401,  402,  403,  404
  405,  406,  407,  408,  409,  410,  411,  412,  413,  414,  415,  416,  417,  418,  419,  420
  421,  422,  423,  424,  425,  426,  427,  428,  429,  430,  431,  432,  433,  434,  435,  436
  437,  438,  439,  440,  441,  442,  443,  444,  445,  446,  447,  448,  449,  450,  451,  452
  453,  454,  455,  456,  457,  458,  459,  460,  461,  462,  463,  464,  465,  466,  467,  468
  469,  470,  471,  472,  473,  474,  475,  476,  477,  478,  479,  480,  481,  482,  483,  484
  485,  486,  487,  488,  489,  490,  491,  492,  493,  494,  495,  496,  497,  498,  499,  500
  501,  502,  503,  504,  505,  506,  507,  508,  509,  510,  511,  512,  513,  514,  515,  516
  517,  518,  519,  520,  521,  522,  523,  524,  525,  526,  527,  528,  529,  530,  531,  532
** ... 119 like lines cut
*Elset, elset=_PickedSet36, internal, instance=Plate-2, generate
    1,  2116,     1
*Elset, elset=__PickedSurf34_SPOS, internal, instance=Plate-1, generate
    1,  2116,     1
*Surface, type=ELEMENT, name=_PickedSurf34, internal
__PickedSurf34_SPOS, SPOS
*End Assembly
** 
** MATERIALS
** 
*Material, name=MAT
*Damage Initiation, criterion=JOHNSON COOK
 -0.09,  0.27,  0.48, 0.014,  3.87, 1878.,  293.,    1.
*Damage Evolution, type=ENERGY
 51.24,
*Density
 4.428e-09,
*Elastic
109778., 0.31
*Plastic, hardening=JOHNSON COOK
1098.,1092., 0.93,  1.1,1878., 293.
*Rate Dependent, type=JOHNSON COOK
 0.014,1.
*Material, name=MAT-plastic
*Density
 4.428e-09,
*Elastic
109778., 0.31
*Plastic, hardening=JOHNSON COOK
1098.,1092., 0.93,  1.1,1878., 293.
*Rate Dependent, type=JOHNSON COOK
 0.014,1.
*Material, name=TI64_PLASTIC
*Density
 4.428e-09,
*Elastic
109778., 0.31
*Plastic, hardening=JOHNSON COOK
1098.,1092., 0.93,  1.1,1878., 293.
*Rate Dependent, type=JOHNSON COOK
 0.014,1.
** 
** INTERACTION PROPERTIES
** 
*Surface Interaction, name=INTPROP-1
*Friction
 0.5,
*Surface Behavior, pressure-overclosure=HARD
*Incident Wave Interaction Property, name=Blast, type=SURFACE BLAST
*CONWEP Charge Property
8e-06, 1000.
0.001, 1., 1e+06
** 
** BOUNDARY CONDITIONS
** 
** Name: BC-1 Type: Symmetry/Antisymmetry/Encastre
*Boundary
_PickedSet35, ENCASTRE
** 
** INTERACTIONS
** 
** Interaction: Int-1
*Contact, op=NEW
*Contact Inclusions, ALL EXTERIOR
*Contact Property Assignment
 ,  , INTPROP-1
** ----------------------------------------------------------------
** 
** STEP: Step-1
** 
*Step, name=Step-1, nlgeom=YES
*Dynamic, Explicit
, 0.0001
*Bulk Viscosity
0.06, 1.2
** Mass Scaling: Semi-Automatic
**               Whole Model
*Fixed Mass Scaling, dt=1e-08, type=below min
** 
** INTERACTIONS
** 
** Interaction: Blast
*Incident Wave Interaction, CONWEP, property=Blast
_PickedSurf34, _PickedSet23,   , 0., 5.
** 
** OUTPUT REQUESTS
** 
*Restart, write, number interval=1, time marks=NO
** 
** FIELD OUTPUT: F-Output-1
** 
*Output, field
*Node Output
U, 
*Element Output, directions=YES
DMICRT, ELEN, PEEQ, S, SDEG, STATUS, STH
** 
** HISTORY OUTPUT: H-Output-1
** 
*Output, history, variable=PRESELECT
*End Step
