*Heading
** Job name: BoundaryCond Model name: case2_obj1_max25_base
** Generated by: Abaqus/CAE 2020
*Preprint, echo=NO, model=NO, history=NO, contact=NO
**
** PARTS
**
**  
*Part, name=POLE
*Node
      1,   34.7297249,  0.154442459,          40.
      2,   33.1424332,  -2.39596295,          40.
      3,   31.3682156,  -4.82005405,          40.
      4,   29.4170799,  -7.10415936,          40.
      5,   27.3000298,  -9.23539543,          40.
      6,    25.029007,  -11.2017431,          40.
      7,   22.6168194,  -12.9921122,          40.
      8,   20.0770721,  -14.5964041,          40.
      9,   17.4240894,  -16.0055695,          40.
     10,   14.6728344,  -17.2116642,          40.
     11,   11.8388243,  -18.2078819,          40.
     12,   8.93804169,  -18.9886055,          40.
     13,   5.98684883,  -19.5494328,          40.
     14,   3.00188994,  -19.8871994,          40.
     15,           0.,         -20.,          40.
     16,   34.7297249,  0.154442459,   36.9230766
     17,   33.1424332,  -2.39596295,   36.9230766
     18,   31.3682156,  -4.82005405,   36.9230766
     19,   29.4170799,  -7.10415936,   36.9230766
     20,   27.3000298,  -9.23539543,   36.9230766
** ... 190 like lines cut
*Element, type=S4R
  1,   1,   2,  17,  16
  2,   2,   3,  18,  17
  3,   3,   4,  19,  18
  4,   4,   5,  20,  19
  5,   5,   6,  21,  20
  6,   6,   7,  22,  21
  7,   7,   8,  23,  22
  8,   8,   9,  24,  23
  9,   9,  10,  25,  24
 10,  10,  11,  26,  25
 11,  11,  12,  27,  26
 12,  12,  13,  28,  27
 13,  13,  14,  29,  28
 14,  14,  15,  30,  29
 15,  16,  17,  32,  31
 16,  17,  18,  33,  32
 17,  18,  19,  34,  33
 18,  19,  20,  35,  34
 19,  20,  21,  36,  35
 20,  21,  22,  37,  36
** ... 162 like lines cut
*Node
    211, -7.34788037e-15,         -20.,          20.
*Nset, nset=POLE-RefPt_, internal
211, 
*Nset, nset=_PickedSet6, internal, generate
   1,  210,    1
*Elset, elset=_PickedSet6, internal, generate
   1,  182,    1
** Section: Section-1
*Shell Section, elset=_PickedSet6, material=MAT, offset=SNEG
1., 5
*End Part
**  
**
** ASSEMBLY
**
*Assembly, name=Assembly
**  
*End Instance
**  
*Instance, name=POLE-1, part=POLE
          0.,          40.,    79.999999
          0.,          40.,    79.999999, 1.00000001268805,          40.,    79.999999, 89.9999992730282
*End Instance
**  
*Nset, nset=BOT, instance=PART-1-1
     1,     2,     3,     4,     5,     6,     7,     8,     9,    10,    11,    12,    13,    14,    15,    16
    17,    18,    19,    20,    21,    22,    23,    24,    25,    26,    27,    28,    29,    30,    31,    32
    33,    34,    35,    36,    37,    38,    39,    40,    41,    42,    43,    44,    45,    46,    47,    48
    49,    50,    51,    52,    53,    54,    55,    56,    57,    58,    59,    60,    61,    62,    63,    64
    65,    66,    67,    68,    69,    70,    71,    72,    73,    74,    75,    76,    77,    78,    79,    80
    81,    82,    83,    84,    85,    86,    87,    88,    89,    90,    91,    92,    93,    94,    95,    96
    97,    98,    99,   100,   101,  1617,  1618,  1619,  1620,  1621,  1622,  1623,  1624,  1625,  1626,  1627
  1628,  1629,  1630,  1631,  1632,  1633,  1634,  1635,  1636,  1637,  1638,  1639,  1640,  1641,  1642,  1643
  1644,  1645,  1646,  1647,  1648,  1649,  1650,  1651,  1652,  1653,  1654,  1655,  1656,  1657,  1658,  1659
  1660,  1661,  1662,  1663,  1664,  1665,  1666,  1667,  1668,  1669,  1670,  1671,  1672,  1673,  1674,  1675
  1676,  1677,  1678,  1679,  1680,  1681,  1682,  1683,  1684,  1685,  1686,  1687,  1688,  1689,  1690,  1691
  1692,  1693,  1694,  1695,  1696,  1697,  1698,  1699,  1700,  1701,  1702,  1703,  1704,  1705,  1706,  1707
  1708,  1709,  1710,  1711,  1712,  1713,  1714,  1715,  1716,  1717,  3233,  3234,  3235,  3236,  3237,  3238
  3239,  3240,  3241,  3242,  3243,  3244,  3245,  3246,  3247,  3248,  3249,  3250,  3251,  3252,  3253,  3254
  3255,  3256,  3257,  3258,  3259,  3260,  3261,  3262,  3263,  3264,  3265,  3266,  3267,  3268,  3269,  3270
  3271,  3272,  3273,  3274,  3275,  3276,  3277,  3278,  3279,  3280,  3281,  3282,  3283,  3284,  3285,  3286
  3287,  3288,  3289,  3290,  3291,  3292,  3293,  3294,  3295,  3296,  3297,  3298,  3299,  3300,  3301,  3302
  3303,  3304,  3305,  3306,  3307,  3308,  3309,  3310,  3311,  3312,  3313,  3314,  3315,  3316,  3317,  3318
  3319,  3320,  3321,  3322,  3323,  3324,  3325,  3326,  3327,  3328,  3329,  3330,  3331,  3332,  3333,  4849
  4850,  4851,  4852,  4853,  4854,  4855,  4856,  4857,  4858,  4859,  4860,  4861,  4862,  4863,  4864,  4865
** ... 176 like lines cut
*Nset, nset=LEFT, instance=PART-1-1, generate
     1,  49996,    101
*Nset, nset=RIGHT, instance=PART-1-1, generate
   101,  50096,    101
*Nset, nset=_PickedSet19, internal, instance=POLE-1
 211,
*Nset, nset=_PickedSet20, internal, instance=POLE-1, generate
   1,  210,    1
*Elset, elset=_PickedSet20, internal, instance=POLE-1, generate
   1,  182,    1
*Nset, nset=_PickedSet21, internal, instance=POLE-1
 211,
** Constraint: RigidBody-1
*Rigid Body, ref node=_PickedSet19, elset=_PickedSet20
*End Assembly
** 
** MATERIALS
** 
*Material, name=MAT
*Density
 2.7e-09,
*Elastic
70000., 0.33
*Plastic
  180.,   0.
  190., 0.01
  197., 0.02
 211.5, 0.05
 225.8,  0.1
 233.6, 0.15
 238.5,  0.2
 248.5,  0.4
*Material, name=MAT_TI64
*Damage Initiation, criterion=JOHNSON COOK
 -0.09,  0.27,  0.48, 0.014,  3.87, 1878.,  293.,    1.
*Damage Evolution, type=ENERGY
 51.24,
*Density
 4.428e-09,
*Elastic
109778., 0.31
*Plastic, hardening=JOHNSON COOK
1098.,1092., 0.93,  1.1,1878., 293.
*Rate Dependent, type=JOHNSON COOK
 0.014,1.
** 
** INTERACTION PROPERTIES
** 
*Surface Interaction, name=INTPROP-1
*Friction
 0.5,
*Surface Behavior, pressure-overclosure=HARD
** 
** BOUNDARY CONDITIONS
** 
** Name: Disp-BC-1 Type: Symmetry/Antisymmetry/Encastre
*Boundary
BOT, YSYMM
** Name: Disp-BC-2 Type: Symmetry/Antisymmetry/Encastre
*Boundary
LEFT, XSYMM
** Name: Disp-BC-3 Type: Symmetry/Antisymmetry/Encastre
*Boundary
RIGHT, ENCASTRE
** 
** INTERACTIONS
** 
** Interaction: general_contact
*Contact, op=NEW
*Contact Inclusions, ALL EXTERIOR
*Contact Property Assignment
 ,  , INTPROP-1
** ----------------------------------------------------------------
** 
** STEP: Step-1
** 
*Step, name=Step-1, nlgeom=YES
*Dynamic, Explicit
, 0.0005
*Bulk Viscosity
0.06, 1.2
** Mass Scaling: Semi-Automatic
**               Whole Model
*Fixed Mass Scaling, dt=5e-08, type=below min
** 
** BOUNDARY CONDITIONS
** 
** Name: BC-4 Type: Velocity/Angular velocity
*Boundary, type=VELOCITY
_PickedSet21, 1, 1
_PickedSet21, 2, 2
_PickedSet21, 3, 3, -60000.
_PickedSet21, 4, 4
_PickedSet21, 5, 5
_PickedSet21, 6, 6
** 
** OUTPUT REQUESTS
** 
*Restart, write, number interval=1, time marks=NO
** 
** FIELD OUTPUT: F-Output-1
** 
*Output, field
*Element Output, directions=YES
DMICRT, ELEN, PEEQ, S, SDEG, STATUS, STH
** 
** FIELD OUTPUT: F-Output-2
** 
*Node Output
U, 
** 
** HISTORY OUTPUT: H-Output-1
** 
*Output, history, variable=PRESELECT
*End Step
